
  Chem3D  10021112143D

  5  4  0  0  0  0  0  0  0  0999 V2000
   -0.0000    0.0000    0.0000 C   0  0  0  0  0  0  0  0  0  0  0  0
    1.1130    0.0000    0.0000 H   0  0  0  0  0  0  0  0  0  0  0  0
   -0.3710    0.0000   -1.0493 H   0  0  0  0  0  0  0  0  0  0  0  0
   -0.3710    0.9088    0.5246 H   0  0  0  0  0  0  0  0  0  0  0  0
   -0.3710   -0.9088    0.5246 H   0  0  0  0  0  0  0  0  0  0  0  0
  1  2  1  0      
  1  3  1  0      
  1  4  1  0      
  1  5  1  0      
M  END
