Cyclohexane
  Chem3D  10011120033D

 18 18  0  0  0  0  0  0  0  0999 V2000
   -5.7620    0.7492    0.0043 C   0  0  0  0  0  0  0  0  0  0  0  0
   -5.7467   -0.7771    0.0043 C   0  0  0  0  0  0  0  0  0  0  0  0
   -4.4784   -1.3272   -0.6428 C   0  0  0  0  0  0  0  0  0  0  0  0
   -3.2215   -0.7518    0.0043 C   0  0  0  0  0  0  0  0  0  0  0  0
   -3.2368    0.7745    0.0041 C   0  0  0  0  0  0  0  0  0  0  0  0
   -4.5050    1.3246    0.6512 C   0  0  0  0  0  0  0  0  0  0  0  0
   -6.6528    1.1009    0.5714 H   0  0  0  0  0  0  0  0  0  0  0  0
   -5.7997    1.0967   -1.0524 H   0  0  0  0  0  0  0  0  0  0  0  0
   -5.8009   -1.1383    1.0556 H   0  0  0  0  0  0  0  0  0  0  0  0
   -6.6207   -1.1337   -0.5853 H   0  0  0  0  0  0  0  0  0  0  0  0
   -4.4673   -2.4345   -0.5303 H   0  0  0  0  0  0  0  0  0  0  0  0
   -4.4814   -1.0358   -1.7169 H   0  0  0  0  0  0  0  0  0  0  0  0
   -3.1600   -1.1117    1.0557 H   0  0  0  0  0  0  0  0  0  0  0  0
   -2.3404   -1.0909   -0.5852 H   0  0  0  0  0  0  0  0  0  0  0  0
   -2.3532    1.1441    0.5711 H   0  0  0  0  0  0  0  0  0  0  0  0
   -3.2062    1.1227   -1.0526 H   0  0  0  0  0  0  0  0  0  0  0  0
   -4.5023    1.0597    1.7322 H   0  0  0  0  0  0  0  0  0  0  0  0
   -4.5161    2.4287    0.5114 H   0  0  0  0  0  0  0  0  0  0  0  0
  1  2  1  0      
  6  1  1  0      
  1  7  1  0      
  1  8  1  0      
  2  3  1  0      
  2  9  1  0      
  2 10  1  0      
  3  4  1  0      
  3 11  1  0      
  3 12  1  0      
  4  5  1  0      
  4 13  1  0      
  4 14  1  0      
  5  6  1  0      
  5 15  1  0      
  5 16  1  0      
  6 17  1  0      
  6 18  1  0      
M  END
