
  Chem3D  07101201153D

  6  5  0  0  0  0  0  0  0  0999 V2000
   -0.3586    0.0000   -0.1337 C   0  0  0  0  0  0  0  0  0  0  0  0
    1.0564    0.0000   -0.1337 O   0  0  0  0  0  0  0  0  0  0  0  0
   -0.6779    0.0000   -1.1978 H   0  0  0  0  0  0  0  0  0  0  0  0
   -0.6779    0.9530    0.3397 H   0  0  0  0  0  0  0  0  0  0  0  0
   -0.6779   -0.9530    0.3397 H   0  0  0  0  0  0  0  0  0  0  0  0
    1.3358    0.0000    0.7858 H   0  0  0  0  0  0  0  0  0  0  0  0
  1  2  1  0      
  1  3  1  0      
  1  4  1  0      
  1  5  1  0      
  2  6  1  0      
M  END
